Version 4
SHEET 1 1108 680
WIRE 672 -176 528 -176
WIRE 528 -112 528 -176
WIRE 528 -112 464 -112
WIRE 560 -112 528 -112
WIRE 672 -112 672 -176
WIRE 672 -112 640 -112
WIRE 720 -112 672 -112
WIRE 736 -112 720 -112
WIRE 464 0 464 -112
WIRE 224 48 192 48
WIRE 272 48 224 48
WIRE 400 48 352 48
WIRE 736 48 736 -112
WIRE 192 128 192 48
WIRE 192 256 192 208
WIRE 464 256 464 96
WIRE 464 256 192 256
WIRE 736 256 736 128
WIRE 736 256 464 256
WIRE 192 288 192 256
FLAG 192 288 0
FLAG 224 48 V1
FLAG 720 -112 V2
SYMBOL voltage 192 112 R0
WINDOW 123 0 0 Left 2
WINDOW 39 0 0 Left 2
SYMATTR InstName V1
SYMATTR Value {U1}
SYMBOL npn3 400 0 R0
SYMATTR InstName Q1
SYMATTR Value BC546B
SYMBOL res 368 32 R90
WINDOW 0 0 56 VBottom 2
WINDOW 3 32 56 VTop 2
SYMATTR InstName R1
SYMATTR Value 1MEG
SYMBOL res 656 -128 R90
WINDOW 0 0 56 VBottom 2
WINDOW 3 32 56 VTop 2
SYMATTR InstName R2
SYMATTR Value 4.7k
SYMBOL voltage 736 32 R0
WINDOW 123 0 0 Left 2
WINDOW 39 0 0 Left 2
SYMATTR InstName V2
SYMATTR Value 5
TEXT 216 272 Left 2 !.op
TEXT 216 240 Left 2 !.step param U1 0 5 0.1
