Version 4
SHEET 1 1672 680
WIRE 400 -224 144 -224
WIRE 544 -224 400 -224
WIRE 144 -192 144 -224
WIRE 400 -144 400 -224
WIRE 544 -144 544 -224
WIRE 144 -80 144 -112
WIRE 544 -32 544 -64
WIRE 592 -32 544 -32
WIRE 704 -32 656 -32
WIRE 544 0 544 -32
WIRE 272 48 240 48
WIRE 400 48 400 -64
WIRE 400 48 352 48
WIRE 480 48 400 48
WIRE 704 128 704 -32
WIRE 544 160 544 96
WIRE 544 288 544 240
WIRE 704 288 704 208
WIRE 704 288 544 288
WIRE 144 304 144 224
WIRE 544 304 544 288
FLAG 144 304 0
FLAG 544 304 0
FLAG 144 -80 0
SYMBOL npn3 480 0 R0
SYMATTR InstName Q1
SYMATTR Value BC547C
SYMBOL res 368 32 R90
WINDOW 0 0 56 VBottom 2
WINDOW 3 32 56 VTop 2
SYMATTR InstName R1
SYMATTR Value 1
SYMBOL res 560 -48 R180
WINDOW 0 36 76 Left 2
WINDOW 3 36 40 Left 2
SYMATTR InstName R2
SYMATTR Value {Rc}
SYMBOL voltage 144 -208 R0
WINDOW 123 0 0 Left 2
WINDOW 39 0 0 Left 2
SYMATTR InstName V2
SYMATTR Value {Uce}
SYMBOL voltage 144 128 R0
WINDOW 123 24 124 Left 2
WINDOW 39 0 0 Left 2
SYMATTR Value2 AC 1
SYMATTR InstName V1
SYMATTR Value SINE(0 {Vin} 1k)
SYMBOL res 416 -48 R180
WINDOW 0 36 76 Left 2
WINDOW 3 36 40 Left 2
SYMATTR InstName R3
SYMATTR Value {Rb}
SYMBOL cap 240 32 R90
WINDOW 0 0 32 VBottom 2
WINDOW 3 32 32 VTop 2
SYMATTR InstName C1
SYMATTR Value 1µ
SYMBOL cap 656 -48 R90
WINDOW 0 0 32 VBottom 2
WINDOW 3 32 32 VTop 2
SYMATTR InstName C2
SYMATTR Value 1µ
SYMBOL res 720 224 R180
WINDOW 0 36 76 Left 2
WINDOW 3 36 40 Left 2
SYMATTR InstName R4
SYMATTR Value 10MEG
SYMBOL res 560 256 R180
WINDOW 0 36 76 Left 2
WINDOW 3 36 40 Left 2
SYMATTR InstName R5
SYMATTR Value 390
TEXT 824 192 Left 2 !.op
TEXT 824 -128 Left 2 ;.step param Uce 0 10 1
TEXT 824 216 Left 2 !;tran 10m
TEXT 824 -152 Left 2 !.param Uce=20
TEXT 824 -56 Left 2 ;.step param Vin 0 10 1
TEXT 824 48 Left 2 ;.step param Rb list 390k 470k 560k 680k 820k 1MEG
TEXT 824 -80 Left 2 !.param Vin=1
TEXT 824 104 Left 2 !.param Rc=5k
TEXT 824 128 Left 2 !.step param Rc list 1k 2.2k 3.3k 4.7k 5.1k 6.8k 8.2k 10k 12k 15k 22k
TEXT 824 24 Left 2 !.param Rb=390k
