Version 4
SHEET 1 1672 680
WIRE 400 -256 144 -256
WIRE 544 -256 400 -256
WIRE 144 -224 144 -256
WIRE 400 -176 400 -256
WIRE 544 -176 544 -256
WIRE 144 -112 144 -144
WIRE 544 -48 544 -96
WIRE 608 -48 544 -48
WIRE 704 -48 672 -48
WIRE 736 -48 704 -48
WIRE 544 0 544 -48
WIRE 240 48 224 48
WIRE 304 48 240 48
WIRE 400 48 400 -96
WIRE 400 48 368 48
WIRE 480 48 400 48
WIRE 736 128 736 -48
WIRE 224 160 224 48
WIRE 544 160 544 96
WIRE 544 288 544 240
WIRE 736 288 736 208
WIRE 736 288 544 288
WIRE 224 304 224 240
WIRE 544 304 544 288
FLAG 544 304 0
FLAG 144 -112 0
FLAG 224 304 0
FLAG 704 -48 Vout
FLAG 240 48 Vin
SYMBOL npn3 480 0 R0
SYMATTR InstName Q1
SYMATTR Value BC547C
SYMBOL res 560 -80 R180
WINDOW 0 36 76 Left 2
WINDOW 3 36 40 Left 2
SYMATTR InstName R2
SYMATTR Value 100
SYMBOL voltage 144 -240 R0
WINDOW 123 0 0 Left 2
WINDOW 39 0 0 Left 2
SYMATTR InstName V2
SYMATTR Value {Uce}
SYMBOL res 416 -80 R180
WINDOW 0 36 76 Left 2
WINDOW 3 36 40 Left 2
SYMATTR InstName R3
SYMATTR Value 390k
SYMBOL cap 672 -64 R90
WINDOW 0 0 32 VBottom 2
WINDOW 3 32 32 VTop 2
SYMATTR InstName C2
SYMATTR Value 1µ
SYMBOL res 752 224 R180
WINDOW 0 36 76 Left 2
WINDOW 3 36 40 Left 2
SYMATTR InstName R4
SYMATTR Value 10MEG
SYMBOL res 560 256 R180
WINDOW 0 36 76 Left 2
WINDOW 3 36 40 Left 2
SYMATTR InstName R5
SYMATTR Value 390
SYMBOL cap 368 32 R90
WINDOW 0 0 32 VBottom 2
WINDOW 3 32 32 VTop 2
SYMATTR InstName C1
SYMATTR Value 1µ
SYMBOL voltage 224 144 R0
WINDOW 123 24 124 Left 2
WINDOW 39 0 0 Left 2
SYMATTR InstName V1
SYMATTR Value SINE(0 100m 1k)
SYMATTR Value2 AC 100m
TEXT 824 192 Left 2 !;op
TEXT 824 -128 Left 2 ;.step param Uce 0 10 1
TEXT 824 216 Left 2 !.tran 10m
TEXT 824 -152 Left 2 !.param Uce=20
TEXT 824 -56 Left 2 ;.step param Vin 0 10 1
TEXT 824 48 Left 2 ;.step param Rb list 390k 470k 560k 680k 820k 1MEG
TEXT 824 -80 Left 2 !.param Vin=1
TEXT 824 104 Left 2 !.param Rc=5k
TEXT 824 128 Left 2 ;.step param Rc list 1k 2.2k 3.3k 4.7k 5.1k 6.8k 8.2k 10k 12k 15k 22k
TEXT 824 24 Left 2 ;.param Rb=390k
